Complete TEF Framework/39_bus/39_bus_Shedding/ieee39bus.seq
0,  32           / PSS®E-32.0    WED, SEP 03 2014  19:22
    30,'1 ', 0.00000E+00, 2.50000E-02
    31,'1 ', 0.00000E+00, 5.00000E-02
    32,'1 ', 0.00000E+00, 4.50000E-02
    33,'1 ', 0.00000E+00, 3.50000E-02
    34,'1 ', 0.00000E+00, 8.90000E-02
    35,'1 ', 0.00000E+00, 4.00000E-02
    36,'1 ', 0.00000E+00, 4.40000E-02
    37,'1 ', 0.00000E+00, 4.50000E-02
    38,'1 ', 0.00000E+00, 4.50000E-02
    39,'1 ', 0.00000E+00, 4.00000E-03
0  / END OF POSITIVE SEQ. MACHINE IMPEDANCE DATA, BEGIN NEGATIVE SEQ. MACHINE DATA
    30,'1 ', 0.00000E+00, 2.50000E-02
    31,'1 ', 0.00000E+00, 5.00000E-02
    32,'1 ', 0.00000E+00, 4.50000E-02
    33,'1 ', 0.00000E+00, 3.50000E-02
    34,'1 ', 0.00000E+00, 8.90000E-02
    35,'1 ', 0.00000E+00, 4.00000E-02
    36,'1 ', 0.00000E+00, 4.40000E-02
    37,'1 ', 0.00000E+00, 4.50000E-02
    38,'1 ', 0.00000E+00, 4.50000E-02
    39,'1 ', 0.00000E+00, 4.00000E-03
0  / END OF NEGATIVE SEQ. MACHINE IMPEDANCE DATA, BEGIN ZERO SEQ. MACHINE DATA
    30,'1 ', 0.00000E+00, 2.50000E-02
    31,'1 ', 0.00000E+00, 5.00000E-02
    32,'1 ', 0.00000E+00, 4.50000E-02
    33,'1 ', 0.00000E+00, 3.50000E-02
    34,'1 ', 0.00000E+00, 8.90000E-02
    35,'1 ', 0.00000E+00, 4.00000E-02
    36,'1 ', 0.00000E+00, 4.40000E-02
    37,'1 ', 0.00000E+00, 4.50000E-02
    38,'1 ', 0.00000E+00, 4.50000E-02
    39,'1 ', 0.00000E+00, 4.00000E-03
0  / END OF ZERO SEQ. MACHINE IMPEDANCE DATA, BEGIN NEGATIVE SEQ. SHUNT DATA
0  / END OF NEGATIVE SEQ. SHUNT DATA, BEGIN ZERO SEQ. SHUNT DATA
0  / END OF ZERO SEQ. SHUNT DATA, BEGIN ZERO SEQ. NON-TRANSFORMER BRANCH DATA
     1,     2,'1 ', 2.13000E-1, 4.11000E-1,    0.10450, 0.00000E+0, 0.00000E+0, 0.00000E+0, 0.00000E+0
     1,     2,'2 ', 2.13000E-1, 4.11000E-1,    0.10450, 0.00000E+0, 0.00000E+0, 0.00000E+0, 0.00000E+0
     1,    39,'1 ', 6.09000E-2, 2.50000E-1,    0.11220, 0.00000E+0, 0.00000E+0, 0.00000E+0, 0.00000E+0
     1,    39,'2 ', 6.09000E-2, 2.50000E-1,    0.11220, 0.00000E+0, 0.00000E+0, 0.00000E+0, 0.00000E+0
     2,     3,'1 ', 7.91000E-2, 1.51000E-1,    0.03850, 0.00000E+0, 0.00000E+0, 0.00000E+0, 0.00000E+0
     2,     3,'2 ', 7.91000E-2, 1.51000E-1,    0.03850, 0.00000E+0, 0.00000E+0, 0.00000E+0, 0.00000E+0
     2,    25,'1 ', 4.26100E-1, 8.60000E-2,    0.02180, 0.00000E+0, 0.00000E+0, 0.00000E+0, 0.00000E+0
     2,    25,'2 ', 4.26100E-1, 8.60000E-2,    0.02180, 0.00000E+0, 0.00000E+0, 0.00000E+0, 0.00000E+0
     3,     4,'1 ', 7.91000E-2, 2.13000E-1,    0.03310, 0.00000E+0, 0.00000E+0, 0.00000E+0, 0.00000E+0
     3,     4,'2 ', 7.91000E-2, 2.13000E-1,    0.03310, 0.00000E+0, 0.00000E+0, 0.00000E+0, 0.00000E+0
     3,    18,'1 ', 6.70000E-2, 1.33000E-1,    0.03200, 0.00000E+0, 0.00000E+0, 0.00000E+0, 0.00000E+0
     3,    18,'2 ', 6.70000E-2, 1.33000E-1,    0.03200, 0.00000E+0, 0.00000E+0, 0.00000E+0, 0.00000E+0
     4,     5,'1 ', 4.87000E-2, 1.28000E-1,    0.02010, 0.00000E+0, 0.00000E+0, 0.00000E+0, 0.00000E+0
     4,     5,'2 ', 4.87000E-2, 1.28000E-1,    0.02010, 0.00000E+0, 0.00000E+0, 0.00000E+0, 0.00000E+0
     4,    14,'1 ', 4.87000E-2, 1.30000E-1,    0.02070, 0.00000E+0, 0.00000E+0, 0.00000E+0, 0.00000E+0
     4,    14,'2 ', 4.87000E-2, 1.30000E-1,    0.02070, 0.00000E+0, 0.00000E+0, 0.00000E+0, 0.00000E+0
     5,     6,'1 ', 1.22000E-2, 2.60000E-2,    0.00650, 0.00000E+0, 0.00000E+0, 0.00000E+0, 0.00000E+0
     5,     6,'2 ', 1.22000E-2, 2.60000E-2,    0.00650, 0.00000E+0, 0.00000E+0, 0.00000E+0, 0.00000E+0
     5,     8,'1 ', 4.87000E-2, 1.12000E-1,    0.02210, 0.00000E+0, 0.00000E+0, 0.00000E+0, 0.00000E+0
     5,     8,'2 ', 4.87000E-2, 1.12000E-1,    0.02210, 0.00000E+0, 0.00000E+0, 0.00000E+0, 0.00000E+0
     6,     7,'1 ', 3.65000E-2, 9.20000E-2,    0.01690, 0.00000E+0, 0.00000E+0, 0.00000E+0, 0.00000E+0
     6,     7,'2 ', 3.65000E-2, 9.20000E-2,    0.01690, 0.00000E+0, 0.00000E+0, 0.00000E+0, 0.00000E+0
     6,    11,'1 ', 4.26000E-2, 8.20000E-2,    0.02080, 0.00000E+0, 0.00000E+0, 0.00000E+0, 0.00000E+0
     6,    11,'2 ', 4.26000E-2, 8.20000E-2,    0.02080, 0.00000E+0, 0.00000E+0, 0.00000E+0, 0.00000E+0
     7,     8,'1 ', 2.43000E-2, 4.60000E-2,    0.01170, 0.00000E+0, 0.00000E+0, 0.00000E+0, 0.00000E+0
     7,     8,'2 ', 2.43000E-2, 4.60000E-2,    0.01170, 0.00000E+0, 0.00000E+0, 0.00000E+0, 0.00000E+0
     8,     9,'1 ', 1.40000E-1, 3.63000E-1,    0.05690, 0.00000E+0, 0.00000E+0, 0.00000E+0, 0.00000E+0
     8,     9,'2 ', 1.40000E-1, 3.63000E-1,    0.05690, 0.00000E+0, 0.00000E+0, 0.00000E+0, 0.00000E+0
     9,    39,'1 ', 6.09000E-2, 2.50000E-1,    0.17950, 0.00000E+0, 0.00000E+0, 0.00000E+0, 0.00000E+0
     9,    39,'2 ', 6.09000E-2, 2.50000E-1,    0.17950, 0.00000E+0, 0.00000E+0, 0.00000E+0, 0.00000E+0
    10,    11,'1 ', 2.43000E-2, 4.30000E-2,    0.01090, 0.00000E+0, 0.00000E+0, 0.00000E+0, 0.00000E+0
    10,    11,'2 ', 2.43000E-2, 4.30000E-2,    0.01090, 0.00000E+0, 0.00000E+0, 0.00000E+0, 0.00000E+0
    10,    13,'1 ', 2.43000E-2, 4.30000E-2,    0.01090, 0.00000E+0, 0.00000E+0, 0.00000E+0, 0.00000E+0
    10,    13,'2 ', 2.43000E-2, 4.30000E-2,    0.01090, 0.00000E+0, 0.00000E+0, 0.00000E+0, 0.00000E+0
    13,    14,'1 ', 5.48000E-2, 1.01000E-1,    0.02580, 0.00000E+0, 0.00000E+0, 0.00000E+0, 0.00000E+0
    13,    14,'2 ', 5.48000E-2, 1.01000E-1,    0.02580, 0.00000E+0, 0.00000E+0, 0.00000E+0, 0.00000E+0
    14,    15,'1 ', 1.09600E-1, 2.17000E-1,    0.05470, 0.00000E+0, 0.00000E+0, 0.00000E+0, 0.00000E+0
    14,    15,'2 ', 1.09600E-1, 2.17000E-1,    0.05470, 0.00000E+0, 0.00000E+0, 0.00000E+0, 0.00000E+0
    15,    16,'1 ', 5.48000E-2, 9.40000E-2,    0.02560, 0.00000E+0, 0.00000E+0, 0.00000E+0, 0.00000E+0
    15,    16,'2 ', 5.48000E-2, 9.40000E-2,    0.02560, 0.00000E+0, 0.00000E+0, 0.00000E+0, 0.00000E+0
    16,    17,'1 ', 4.26000E-2, 8.90000E-2,    0.02010, 0.00000E+0, 0.00000E+0, 0.00000E+0, 0.00000E+0
    16,    17,'2 ', 4.26000E-2, 8.90000E-2,    0.02010, 0.00000E+0, 0.00000E+0, 0.00000E+0, 0.00000E+0
    16,    19,'1 ', 9.74000E-2, 1.95000E-1,    0.04550, 0.00000E+0, 0.00000E+0, 0.00000E+0, 0.00000E+0
    16,    19,'2 ', 9.74000E-2, 1.95000E-1,    0.04550, 0.00000E+0, 0.00000E+0, 0.00000E+0, 0.00000E+0
    16,    21,'1 ', 4.87000E-2, 1.35000E-1,    0.03810, 0.00000E+0, 0.00000E+0, 0.00000E+0, 0.00000E+0
    16,    21,'2 ', 4.87000E-2, 1.35000E-1,    0.03810, 0.00000E+0, 0.00000E+0, 0.00000E+0, 0.00000E+0
    16,    24,'1 ', 1.83000E-2, 5.50000E-3,    0.01020, 0.00000E+0, 0.00000E+0, 0.00000E+0, 0.00000E+0
    16,    24,'2 ', 1.83000E-2, 5.50000E-3,    0.01020, 0.00000E+0, 0.00000E+0, 0.00000E+0, 0.00000E+0
    17,    18,'1 ', 4.26000E-2, 8.20000E-3,    0.01970, 0.00000E+0, 0.00000E+0, 0.00000E+0, 0.00000E+0
    17,    18,'2 ', 4.26000E-2, 8.20000E-3,    0.01970, 0.00000E+0, 0.00000E+0, 0.00000E+0, 0.00000E+0
    17,    27,'1 ', 7.91000E-2, 1.70000E-1,    0.04810, 0.00000E+0, 0.00000E+0, 0.00000E+0, 0.00000E+0
    17,    27,'2 ', 7.91000E-2, 1.70000E-1,    0.04810, 0.00000E+0, 0.00000E+0, 0.00000E+0, 0.00000E+0
    21,    22,'1 ', 4.87000E-2, 1.40000E-1,    0.03840, 0.00000E+0, 0.00000E+0, 0.00000E+0, 0.00000E+0
    21,    22,'2 ', 4.87000E-2, 1.40000E-1,    0.03840, 0.00000E+0, 0.00000E+0, 0.00000E+0, 0.00000E+0
    22,    23,'1 ', 3.65000E-2, 9.60000E-2,    0.02760, 0.00000E+0, 0.00000E+0, 0.00000E+0, 0.00000E+0
    22,    23,'2 ', 3.65000E-2, 9.60000E-2,    0.02760, 0.00000E+0, 0.00000E+0, 0.00000E+0, 0.00000E+0
    23,    24,'1 ', 1.33900E-1, 3.50000E-1,    0.05400, 0.00000E+0, 0.00000E+0, 0.00000E+0, 0.00000E+0
    23,    24,'2 ', 1.33900E-1, 3.50000E-1,    0.05400, 0.00000E+0, 0.00000E+0, 0.00000E+0, 0.00000E+0
    25,    26,'1 ', 1.94800E-1, 3.23000E-1,    0.07670, 0.00000E+0, 0.00000E+0, 0.00000E+0, 0.00000E+0
    25,    26,'2 ', 1.94800E-1, 3.23000E-1,    0.07670, 0.00000E+0, 0.00000E+0, 0.00000E+0, 0.00000E+0
    26,    27,'1 ', 8.52000E-2, 1.47000E-1,    0.03580, 0.00000E+0, 0.00000E+0, 0.00000E+0, 0.00000E+0
    26,    27,'2 ', 8.52000E-2, 1.47000E-1,    0.03580, 0.00000E+0, 0.00000E+0, 0.00000E+0, 0.00000E+0
    26,    28,'1 ', 2.61700E-1, 2.74000E-1,    0.11670, 0.00000E+0, 0.00000E+0, 0.00000E+0, 0.00000E+0
    26,    28,'2 ', 2.61700E-1, 2.74000E-1,    0.11670, 0.00000E+0, 0.00000E+0, 0.00000E+0, 0.00000E+0
    26,    29,'1 ', 3.47000E-1, 6.40000E-1,    0.15390, 0.00000E+0, 0.00000E+0, 0.00000E+0, 0.00000E+0
    26,    29,'2 ', 3.47000E-1, 6.40000E-1,    0.15390, 0.00000E+0, 0.00000E+0, 0.00000E+0, 0.00000E+0
    28,    29,'1 ', 8.52000E-2, 1.51000E-1,    0.03720, 0.00000E+0, 0.00000E+0, 0.00000E+0, 0.00000E+0
    28,    29,'2 ', 8.52000E-2, 1.51000E-1,    0.03720, 0.00000E+0, 0.00000E+0, 0.00000E+0, 0.00000E+0
0  / END OF ZERO SEQ. NON-TRANSFORMER BRANCH DATA, BEGIN ZERO SEQ. MUTUAL DATA
0  / END OF ZERO SEQ. MUTUAL DATA, BEGIN ZERO SEQ. TRANSFORMER DATA
     2,    30,     0,'1 ',  3, 0.00000E+0, 0.00000E+0, 0.00000E+0, 1.81000E-2
     6,    31,     0,'1 ',  3, 0.00000E+0, 0.00000E+0, 0.00000E+0, 2.50000E-2
    10,    32,     0,'1 ',  3, 0.00000E+0, 0.00000E+0, 0.00000E+0, 2.00000E-2
    11,    12,     0,'1 ',  3, 0.00000E+0, 0.00000E+0, 1.60000E-3, 4.35000E-2
    12,    13,     0,'1 ',  3, 0.00000E+0, 0.00000E+0, 1.60000E-3, 4.35000E-2
    19,    20,     0,'1 ',  3, 0.00000E+0, 0.00000E+0, 7.00000E-4, 1.38000E-2
    19,    33,     0,'1 ',  3, 0.00000E+0, 0.00000E+0, 7.00000E-4, 1.42000E-2
    20,    34,     0,'1 ',  3, 0.00000E+0, 0.00000E+0, 9.00000E-4, 1.80000E-2
    22,    35,     0,'1 ',  3, 0.00000E+0, 0.00000E+0, 0.00000E+0, 1.43000E-2
    23,    36,     0,'1 ',  3, 0.00000E+0, 0.00000E+0, 5.00000E-4, 2.72000E-2
    25,    37,     0,'1 ',  3, 0.00000E+0, 0.00000E+0, 6.00000E-4, 2.32000E-2
    29,    38,     0,'1 ',  3, 0.00000E+0, 0.00000E+0, 8.00000E-4, 1.56000E-2
0  / END OF ZERO SEQ. TRANSFORMER DATA, BEGIN ZERO SEQ. SWITCHED SHUNT DATA
0  / END OF ZERO SEQ. SWITCHED SHUNT DATA, BEGIN ZERO SEQ. FIXED SHUNT DATA
0  / END OF ZERO SEQ. FIXED SHUNT DATA
